Version 4
SHEET 1 884 680
WIRE 224 -112 -384 -112
WIRE 464 -112 224 -112
WIRE 464 -64 464 -112
WIRE 288 0 144 0
WIRE -384 48 -384 -112
WIRE 224 80 224 -112
WIRE 464 80 464 16
WIRE 464 96 464 80
WIRE 16 128 -64 128
WIRE 144 128 144 0
WIRE 144 128 96 128
WIRE 160 128 144 128
WIRE 288 128 288 0
WIRE 416 160 352 160
WIRE -64 176 -64 128
WIRE 224 192 224 176
WIRE 352 192 352 160
WIRE 352 192 224 192
WIRE 224 224 224 192
WIRE -384 240 -384 128
WIRE 464 288 464 176
WIRE -64 304 -64 256
WIRE 224 336 224 304
FLAG -384 240 0
FLAG 224 336 0
FLAG 464 288 0
FLAG -64 304 0
SYMBOL nmos 416 80 R0
SYMATTR InstName M1
SYMATTR Value IRFZ44N
SYMBOL res 112 112 R90
WINDOW 0 0 56 VBottom 2
WINDOW 3 32 56 VTop 2
SYMATTR InstName R2
SYMATTR Value 100R
SYMBOL bv -384 32 R0
SYMATTR InstName B2
SYMATTR Value V=12v
SYMBOL bv -64 160 R0
SYMATTR InstName B1
SYMATTR Value V=0v
SYMBOL res 208 208 R0
SYMATTR InstName R4
SYMATTR Value 1000R
SYMBOL res 448 -80 R0
SYMATTR InstName R3
SYMATTR Value 5R
SYMBOL pnp 288 176 R180
SYMATTR InstName Q1
SYMATTR Value 2N3906
TEXT -416 312 Left 2 !.tran .1
TEXT 352 336 Left 2 ;Tie drain to gnd!!!!!!!!!!!!
TEXT 528 -32 Left 2 ;Load
TEXT -64 32 Left 2 ;Active LOW
